LAMMPS (29 Aug 2024 - Update 1)
#INIT
units real
boundary p p p
atom_style full

#atom_modify map array
pair_style lj/cut 13
bond_style harmonic
angle_style harmonic
dihedral_style harmonic

read_data ./PDMS_50.data
Reading data file ...
  orthogonal box = (-52.9512 -52.9512 -52.9512) to (52.9512 52.9512 52.9512)
  reading atoms ...
  50 atoms
  scanning bonds ...
  scanning angles ...
  scanning dihedrals ...
  orthogonal box = (-52.9512 -52.9512 -52.9512) to (52.9512 52.9512 52.9512)
  reading bonds ...
  49 bonds
  reading angles ...
  48 angles
  reading dihedrals ...
  47 dihedrals
Finding 1-2 1-3 1-4 neighbors ...
     2 = max # of 1-2 neighbors
     2 = max # of 1-3 neighbors
     4 = max # of 1-4 neighbors
     6 = max # of special neighbors

neighbor 1.8 bin
pair_modify shift no tail yes mix arithmetic
# special_bonds lj/coul 0.0 0.0 0.0

timestep 0.5
thermo 1000
thermo_style custom step temp press vol epair emol etotal enthalpy

velocity all create 300 1234567 rot yes dist gaussian

minimize 1.0e-10 1.0e-11 100000 100000

CITE-CITE-CITE-CITE-CITE-CITE-CITE-CITE-CITE-CITE-CITE-CITE-CITE

Your simulation uses code contributions which should be cited:

- Type Label Framework: https://doi.org/10.1021/acs.jpcb.3c08419

@Article{Gissinger24,
 author = {Jacob R. Gissinger, Ilia Nikiforov, Yaser Afshar, Brendon Waters, Moon-ki Choi, Daniel S. Karls, Alexander Stukowski, Wonpil Im, Hendrik Heinz, Axel Kohlmeyer, and Ellad B. Tadmor},
 title = {Type Label Framework for Bonded Force Fields in LAMMPS},
 journal = {J. Phys. Chem. B},
 year =    2024,
 volume =  128,
 number =  13,
 pages =   {3282–-3297}
}

CITE-CITE-CITE-CITE-CITE-CITE-CITE-CITE-CITE-CITE-CITE-CITE-CITE

Generated 1 of 1 mixed pair_coeff terms from arithmetic mixing rule
Step          Temp          Press          Volume         E_pair         E_mol          TotEng        Enthalpy
0   300            140569.41      1187729.1      607755.84      151.38812      607951.04      3042867.8
Loop time of 0.00603719 on 1 procs for 372 steps with 50 atoms

Minimization stats:
  Stopping criterion = linesearch alpha is zero
  Energy initial, next-to-last, final =
  Force two-norm initial, final = 4967313.2 0.49310854
  Force max component initial, final = 3346423.1 0.19577783
  Final line search alpha, max atom move = 3.6369474e-08 7.1203367e-09
  Iterations, force evaluations = 372 613

# -----------------------------------------------------
# 5. 计算均方回转半径
# -----------------------------------------------------
# 使用compute gyration命令计算整个体系的回转半径
fix             equil all nvt temp 300.0 300.0 100.0
variable        d_end equal "sqrt((x[1]-x[50])^2 + (y[1]-y[50])^2 + (z[1]-z[50])^2)"
compute         rg all gyration
fix             avg all ave/time 1000 500 1000000 c_rg v_d_end file avg.txt
# 输出热力学信息及回转半径数据，每隔1000步输出一次
thermo_style    custom step temp pe ke etotal c_rg v_d_end
thermo          10000
# 输出轨迹文件，便于后续可视化与分析
dump            traj all custom 1000 dump.pdms.lammpstrj id type x y z
# 运行模拟，记录回转半径数据（后续可统计分析均值与波动）
run             1000000
Generated 1 of 1 mixed pair_coeff terms from arithmetic mixing rule
Step          Temp          PotEng         KinEng         TotEng          c_rg         v_d_end
372   300           -66.469248      43.817908     -22.651341      15.516518      31.056502
Averages over the last 51 of 102 rows, steps 510000 to 1000372:
Temp PotEng KinEng TotEng c_rg v_d_end
293.545 -87.8084 42.8751 -44.9333 7.63825 16.2786
Loop time of 9.18608 on 1 procs for 1000000 steps with 50 atoms

unfix           equil
# -----------------------------------------------------
# 6. 数据输出
# -----------------------------------------------------

# 写出最终体系数据文件
write_data      pdms_out.data
System init for write_data ...
Generated 1 of 1 mixed pair_coeff terms from arithmetic mixing rule
