LAMMPS (29 Aug 2024 - Update 1)
units           real
dimension       3
boundary        p p p
atom_style      full

read_data       PDMS_100.data
Reading data file ...
  orthogonal box = (-77.3707 -77.3707 -77.3707) to (77.3707 77.3707 77.3707)
  reading atoms ...
  100 atoms
  scanning bonds ...
  orthogonal box = (-77.3707 -77.3707 -77.3707) to (77.3707 77.3707 77.3707)
  reading bonds ...
  99 bonds
Finding 1-2 1-3 1-4 neighbors ...
     2 = max # of 1-2 neighbors
     2 = max # of 1-3 neighbors
     4 = max # of 1-4 neighbors
     6 = max # of special neighbors

pair_style      none

bond_style      harmonic
bond_coeff      1 27.486 4.48
angle_style     none
dihedral_style  none

neigh_modify    one 100
neighbor        1 bin
neigh_modify    delay 0 every 1 check yes

minimize        1.0e-4 1.0e-6 1000 10000

CITE-CITE-CITE-CITE-CITE-CITE-CITE-CITE-CITE-CITE-CITE-CITE-CITE

Your simulation uses code contributions which should be cited:

- Type Label Framework: https://doi.org/10.1021/acs.jpcb.3c08419

@Article{Gissinger24,
 author = {Jacob R. Gissinger, Ilia Nikiforov, Yaser Afshar, Brendon Waters, Moon-ki Choi, Daniel S. Karls, Alexander Stukowski, Wonpil Im, Hendrik Heinz, Axel Kohlmeyer, and Ellad B. Tadmor},
 title = {Type Label Framework for Bonded Force Fields in LAMMPS},
 journal = {J. Phys. Chem. B},
 year =    2024,
 volume =  128,
 number =  13,
 pages =   {3282â€“-3297}
}

CITE-CITE-CITE-CITE-CITE-CITE-CITE-CITE-CITE-CITE-CITE-CITE-CITE

Step          Temp          E_pair         E_mol          TotEng         Press
0   0              0              1.0884456      1.0884456     -3.0213604
Loop time of 0.000116479 on 1 procs for 22 steps with 100 atoms

Minimization stats:
  Stopping criterion = energy tolerance
  Energy initial, next-to-last, final =
  Force two-norm initial, final = 14.653306 3.363065e-06
  Force max component initial, final = 2.1944553 9.4034003e-07
  Final line search alpha, max atom move = 1 9.4034003e-07
  Iterations, force evaluations = 22 54

fix             equil all nvt temp 300.0 300.0 100.0
timestep        10
thermo_style    one
thermo          10000
run             50000
Step          Temp          E_pair         E_mol          TotEng         Press
22   0              0              8.4888087e-14  8.4888087e-14 -3.356893e-08
Loop time of 0.164271 on 1 procs for 50000 steps with 100 atoms

unfix           equil

fix             prod all nve
variable        d_end equal "sqrt((x[1]-x[100])^2 + (y[1]-y[100])^2 + (z[1]-z[100])^2)"
compute         rg all gyration
fix             avg all ave/time 2000000 800 2000000000 c_rg v_d_end file avg.txt

thermo_style    custom step temp pe ke etotal c_rg v_d_end
thermo          2000000

dump            traj all custom 2000000 dump.pdms.lammpstrj id type x y z

run             2000000000
Step          Temp          PotEng         KinEng         TotEng          c_rg         v_d_end
50022   277.13283      26.927434      81.781951      108.70938      13.209069      23.480008
Averages over the last 501 of 1002 rows, steps 1002000000 to 2000050022:
Temp PotEng KinEng TotEng c_rg v_d_end
274.524 27.7568 81.012 108.769 15.4454 34.1575
Loop time of 4728.96 on 1 procs for 2000000000 steps with 100 atoms

unfix           prod

write_data      pdms_out.data
System init for write_data ...
