LAMMPS (29 Aug 2024 - Update 1)
# LAMMPS输入文件示例：使用Martini 3粗粒化力场计算PDMS的均方回转半径
# -----------------------------------------------------
# 1. 初始化设置
# -----------------------------------------------------
units           real
dimension       3
boundary        p p p
atom_style      full

# 读取包含PDMS分子结构的data文件
read_data       PDMS_50.data
Reading data file ...
  orthogonal box = (-52.9512 -52.9512 -52.9512) to (52.9512 52.9512 52.9512)
  reading atoms ...
  50 atoms
  scanning bonds ...
  orthogonal box = (-52.9512 -52.9512 -52.9512) to (52.9512 52.9512 52.9512)
  reading bonds ...
  49 bonds
Finding 1-2 1-3 1-4 neighbors ...
     2 = max # of 1-2 neighbors
     2 = max # of 1-3 neighbors
     4 = max # of 1-4 neighbors
     6 = max # of special neighbors

# -----------------------------------------------------
# 2. 力场参数设置（Martini 3参数）
# -----------------------------------------------------
# 定义非键相互作用（示例：Lennard-Jones势，截断距离可参考Martini 3常用取值）
pair_style lj/cut   12.0
pair_coeff          * * 0 5.1 12.0

# 定义键、角、二面角势（示例参数，实际参数请参考相关文献）
bond_style      harmonic
bond_coeff      1 27.486 4.48
# angle_style     harmonic
# angle_coeff 1 10.96 86.0
# dihedral_style  harmonic
# dihedral_coeff 1 1  0.3346  1  1.18
# -----------------------------------------------------
# 3. 邻域列表设置
# -----------------------------------------------------
neigh_modify    one 100
neighbor        1 bin
neigh_modify    delay 0 every 1 check yes

# -----------------------------------------------------
# 4. 能量最小化与预平衡
# -----------------------------------------------------
minimize        1.0e-4 1.0e-6 1000 10000

CITE-CITE-CITE-CITE-CITE-CITE-CITE-CITE-CITE-CITE-CITE-CITE-CITE

Your simulation uses code contributions which should be cited:

- Type Label Framework: https://doi.org/10.1021/acs.jpcb.3c08419

@Article{Gissinger24,
 author = {Jacob R. Gissinger, Ilia Nikiforov, Yaser Afshar, Brendon Waters, Moon-ki Choi, Daniel S. Karls, Alexander Stukowski, Wonpil Im, Hendrik Heinz, Axel Kohlmeyer, and Ellad B. Tadmor},
 title = {Type Label Framework for Bonded Force Fields in LAMMPS},
 journal = {J. Phys. Chem. B},
 year =    2024,
 volume =  128,
 number =  13,
 pages =   {3282–-3297}
}

CITE-CITE-CITE-CITE-CITE-CITE-CITE-CITE-CITE-CITE-CITE-CITE-CITE

Generated 0 of 1 mixed pair_coeff terms from geometric mixing rule
Step          Temp          E_pair         E_mol          TotEng         Press
0   0              0              0.53872348     0.53872348    -4.6651404
Loop time of 0.000183468 on 1 procs for 19 steps with 50 atoms

Minimization stats:
  Stopping criterion = energy tolerance
  Energy initial, next-to-last, final =
  Force two-norm initial, final = 10.374724 3.9129747e-06
  Force max component initial, final = 2.0720234 1.0117405e-06
  Final line search alpha, max atom move = 1 1.0117405e-06
  Iterations, force evaluations = 19 49

fix             equil all nvt temp 300.0 300.0 100.0
timestep        1
run             500000
Generated 0 of 1 mixed pair_coeff terms from geometric mixing rule
Step          Temp          E_pair         E_mol          TotEng         Press
19   0              0              1.1747456e-13  1.1747456e-13  1.16371e-07
Loop time of 2.24383 on 1 procs for 500000 steps with 50 atoms

unfix           equil

# -----------------------------------------------------
# 5. 计算均方回转半径
# -----------------------------------------------------
# 使用compute gyration命令计算整个体系的回转半径
fix             equil all nvt temp 300.0 300.0 100.0
variable        d_end equal "sqrt((x[1]-x[50])^2 + (y[1]-y[50])^2 + (z[1]-z[50])^2)"
compute         rg all gyration
fix             avg all ave/time 1000 500 1000000 c_rg v_d_end file avg.txt
# 输出热力学信息及回转半径数据，每隔1000步输出一次
thermo_style    custom step temp pe ke etotal c_rg v_d_end
thermo          10000
# 输出轨迹文件，便于后续可视化与分析
dump            traj all custom 1000 dump.pdms.lammpstrj id type x y z
# 运行模拟，记录回转半径数据（后续可统计分析均值与波动）
run             1000000
Generated 0 of 1 mixed pair_coeff terms from geometric mixing rule
Step          Temp          PotEng         KinEng         TotEng          c_rg         v_d_end
500019   309.54031      12.247544      45.211362      57.458906      10.603903      18.210994
Averages over the last 51 of 102 rows, steps 1010000 to 1500019:
Temp PotEng KinEng TotEng c_rg v_d_end
298.365 12.5763 43.5791 56.1555 11.3899 32.7648
Loop time of 4.46973 on 1 procs for 1000000 steps with 50 atoms

unfix           equil
# -----------------------------------------------------
# 6. 数据输出
# -----------------------------------------------------

# 写出最终体系数据文件
write_data      pdms_out.data
System init for write_data ...
Generated 0 of 1 mixed pair_coeff terms from geometric mixing rule
