LAMMPS (29 Aug 2024 - Update 1)
# LAMMPS输入文件示例：使用Martini 3粗粒化力场计算PDMS的均方回转半径
# -----------------------------------------------------
# 1. 初始化设置
# -----------------------------------------------------
units               real
dimension           3
boundary            p p p
atom_style          full

# 读取包含PDMS分子结构的data文件
read_data           PDMS.data
Reading data file ...
  orthogonal box = (-62.5047 -62.5047 -62.5047) to (62.5047 62.5047 62.5047)
  reading atoms ...
  14850 atoms
  reading velocities ...
  14850 velocities
  scanning bonds ...
  scanning angles ...
  scanning dihedrals ...
  orthogonal box = (-62.5047 -62.5047 -62.5047) to (62.5047 62.5047 62.5047)
  reading bonds ...
  14553 bonds
  reading angles ...
  14256 angles
  reading dihedrals ...
  13959 dihedrals
Finding 1-2 1-3 1-4 neighbors ...
     2 = max # of 1-2 neighbors
     2 = max # of 1-3 neighbors
     4 = max # of 1-4 neighbors
     6 = max # of special neighbors

# -----------------------------------------------------
# 2. 力场参数设置（Martini 3参数）
# -----------------------------------------------------
# 定义非键相互作用（示例：Lennard-Jones势，截断距离可参考Martini 3常用取值）
pair_style lj/cut 12.0
pair_coeff          * * 0.7337 5.1
# 定义键、角、二面角势（示例参数，实际参数请参考相关文献）
bond_style          harmonic
bond_coeff          1 13.243 4.48
angle_style         harmonic
angle_coeff         1 5.48 86.0
dihedral_style      harmonic
dihedral_coeff      1 0.3346  1  1
# -----------------------------------------------------
# 3. 邻域列表设置
# -----------------------------------------------------
neigh_modify    one 100
neighbor        1 bin
neigh_modify    delay 0 every 1 check yes

# -----------------------------------------------------
# 4. 能量最小化与预平衡
# -----------------------------------------------------
minimize        1.0e-4 1.0e-6 1000 10000

CITE-CITE-CITE-CITE-CITE-CITE-CITE-CITE-CITE-CITE-CITE-CITE-CITE

Your simulation uses code contributions which should be cited:

- Type Label Framework: https://doi.org/10.1021/acs.jpcb.3c08419

@Article{Gissinger24,
 author = {Jacob R. Gissinger, Ilia Nikiforov, Yaser Afshar, Brendon Waters, Moon-ki Choi, Daniel S. Karls, Alexander Stukowski, Wonpil Im, Hendrik Heinz, Axel Kohlmeyer, and Ellad B. Tadmor},
 title = {Type Label Framework for Bonded Force Fields in LAMMPS},
 journal = {J. Phys. Chem. B},
 year =    2024,
 volume =  128,
 number =  13,
 pages =   {3282–-3297}
}

CITE-CITE-CITE-CITE-CITE-CITE-CITE-CITE-CITE-CITE-CITE-CITE-CITE

Generated 0 of 1 mixed pair_coeff terms from geometric mixing rule
Step          Temp          E_pair         E_mol          TotEng         Press
0   3006253.6     -49858.65       11890.157      1.3302498e+08  3113211.3
Loop time of 0.137834 on 8 procs for 65 steps with 14850 atoms

Minimization stats:
  Stopping criterion = energy tolerance
  Energy initial, next-to-last, final =
  Force two-norm initial, final = 766.80949 20.10284
  Force max component initial, final = 23.685769 4.5112651
  Final line search alpha, max atom move = 0.011646078 0.052538543
  Iterations, force evaluations = 65 79

fix             1 all npt temp 300.0 300.0 100.0 iso 1.0 1.0 1000
timestep        1
thermo_style    custom step temp press density vol
thermo          10000
run             50000
Generated 0 of 1 mixed pair_coeff terms from geometric mixing rule
Step          Temp          Press         Density         Volume
65   3006253.6      3111873        0.90882444     1953565.7
Loop time of 72.2194 on 8 procs for 50000 steps with 14850 atoms

unfix           1

fix             2 all npt temp 300.0 50.0 100.0 iso 1.0 1.0 1000
timestep        1
dump            traj all custom 1000 dump.pdms.lammpstrj id type x y z
thermo_style    custom step temp press density vol
thermo          10000
run             500000
Generated 0 of 1 mixed pair_coeff terms from geometric mixing rule
Step          Temp          Press         Density         Volume
50065   299.1933       44.497932      1.2922457      1373924.6
Averages over the last 26 of 52 rows, steps 310000 to 550065:
Temp Press Density Volume
107.552 6.4927 1.54102 1.15224e+06
Loop time of 866.535 on 8 procs for 500000 steps with 14850 atoms

unfix           2

# # -----------------------------------------------------
# # 5. 计算均方回转半径
# # -----------------------------------------------------
# # 使用compute gyration命令计算整个体系的回转半径
# fix             equil all nvt temp 300.0 300.0 100.0
# compute         rg all gyration
# fix             avg all ave/time 1000 500 1000000 c_rg file avg.txt
# # 输出热力学信息及回转半径数据，每隔1000步输出一次
# thermo_style    custom step temp pe ke etotal c_rg
# thermo          10000
# # 输出轨迹文件，便于后续可视化与分析
# dump            traj all custom 1000 dump.pdms.lammpstrj id type x y z
# # 运行模拟，记录回转半径数据（后续可统计分析均值与波动）
# run             1000000
# unfix           equil
# # -----------------------------------------------------
# # 6. 数据输出
# # -----------------------------------------------------

# # 写出最终体系数据文件
# write_data      pdms_out.datata
