LAMMPS (29 Aug 2024 - Update 1)
# LAMMPS输入文件示例：使用Martini 3粗粒化力场计算PDMS的均方回转半径
# -----------------------------------------------------
# 1. 初始化设置
# -----------------------------------------------------
units           real
dimension       3
boundary        p p p
atom_style      full

# 读取包含PDMS分子结构的data文件
read_data       PDMS_200.data
Reading data file ...
  orthogonal box = (-163.9664 -163.9664 -163.9664) to (163.9664 163.9664 163.9664)
  reading atoms ...
  200 atoms
  scanning bonds ...
  orthogonal box = (-163.9664 -163.9664 -163.9664) to (163.9664 163.9664 163.9664)
  reading bonds ...
  199 bonds
Finding 1-2 1-3 1-4 neighbors ...
     2 = max # of 1-2 neighbors
     2 = max # of 1-3 neighbors
     4 = max # of 1-4 neighbors
     6 = max # of special neighbors

# -----------------------------------------------------
# 2. 力场参数设置（Martini 3参数）
# -----------------------------------------------------
# 定义非键相互作用（示例：Lennard-Jones势，截断距离可参考Martini 3常用取值）
# pair_style lj/cut   12.0
# pair_coeff          * * 0 5.1 12.0
pair_style      none
# 定义键、角、二面角势（示例参数，实际参数请参考相关文献）
bond_style      harmonic
bond_coeff      1 27.486 4.48
# angle_style     harmonic
# angle_coeff 1 10.96 86.0
# dihedral_style  harmonic
# dihedral_coeff 1 1  0.3346  1  1.18
# -----------------------------------------------------
# 3. 邻域列表设置
# -----------------------------------------------------
neigh_modify    one 500
neighbor        1 bin
neigh_modify    delay 0 every 1 check yes

# -----------------------------------------------------
# 4. 能量最小化与预平衡
# -----------------------------------------------------
minimize        1.0e-4 1.0e-6 1000 10000

CITE-CITE-CITE-CITE-CITE-CITE-CITE-CITE-CITE-CITE-CITE-CITE-CITE

Your simulation uses code contributions which should be cited:

- Type Label Framework: https://doi.org/10.1021/acs.jpcb.3c08419

@Article{Gissinger24,
 author = {Jacob R. Gissinger, Ilia Nikiforov, Yaser Afshar, Brendon Waters, Moon-ki Choi, Daniel S. Karls, Alexander Stukowski, Wonpil Im, Hendrik Heinz, Axel Kohlmeyer, and Ellad B. Tadmor},
 title = {Type Label Framework for Bonded Force Fields in LAMMPS},
 journal = {J. Phys. Chem. B},
 year =    2024,
 volume =  128,
 number =  13,
 pages =   {3282–-3297}
}

CITE-CITE-CITE-CITE-CITE-CITE-CITE-CITE-CITE-CITE-CITE-CITE-CITE

Step          Temp          E_pair         E_mol          TotEng         Press
0   0              0              2.1878968      2.1878968     -0.63809673
Loop time of 0.000281617 on 1 procs for 27 steps with 200 atoms

Minimization stats:
  Stopping criterion = energy tolerance
  Energy initial, next-to-last, final =
  Force two-norm initial, final = 21.614525 3.559069e-06
  Force max component initial, final = 2.197663 7.4600358e-07
  Final line search alpha, max atom move = 1 7.4600358e-07
  Iterations, force evaluations = 27 66

fix             equil all nvt temp 300.0 300.0 10.0
timestep        10
thermo_style    one
thermo          10000
run             50000
Step          Temp          E_pair         E_mol          TotEng         Press
27   0              0              1.5539292e-13  1.5539292e-13 -8.905309e-09
Loop time of 0.321023 on 1 procs for 50000 steps with 200 atoms

unfix           equil

# -----------------------------------------------------
# 5. 计算均方回转半径
# -----------------------------------------------------
# 使用compute gyration命令计算整个体系的回转半径
fix             equil all nvt temp 300.0 300.0 10.0
# variable        d_end equal "sqrt((x[1]-x[200])^2 + (y[1]-y[200])^2 + (z[1]-z[200])^2)"

# 定义链的两个端点组（假设原子ID为1和100）
group           head id 1
1 atoms in group head
group           tail id 100
1 atoms in group tail

# 计算头尾原子的未包装坐标
compute         pos_head head property/atom xu yu zu
compute         pos_tail tail property/atom xu yu zu

# 使用 compute reduce 提取单个标量值（即头尾原子的坐标）
compute         head_coord head reduce ave c_pos_head[1] c_pos_head[2] c_pos_head[3]
compute         tail_coord tail reduce ave c_pos_tail[1] c_pos_tail[2] c_pos_tail[3]

# 计算真实的端到端距离
variable        d_end equal "sqrt((c_head_coord[1]-c_tail_coord[1])^2 + (c_head_coord[2]-c_tail_coord[2])^2 + (c_head_coord[3]-c_tail_coord[3])^2)"
# 定义计算每个原子的动能
compute         mv2 all ke/atom

compute         rg all gyration
fix             avg all ave/time 1000 900 1000000 c_rg v_d_end file avg.txt
# 输出热力学信息及回转半径数据，每隔1000步输出一次
thermo_style    custom step temp pe ke etotal c_rg v_d_end
thermo          10000
# 输出轨迹文件，便于后续可视化与分析
dump            traj all custom 1000 dump.pdms.lammpstrj id type x y z c_mv2
# 运行模拟，记录回转半径数据（后续可统计分析均值与波动）
run             1000000
Step          Temp          PotEng         KinEng         TotEng          c_rg         v_d_end
50027   321.06817      51.543121      190.4516       241.99473      17.312762      8.5332618
Averages over the last 51 of 102 rows, steps 560000 to 1050027:
Temp PotEng KinEng TotEng c_rg v_d_end
303.725 46.5625 180.164 226.726 26.3726 44.3267
Loop time of 6.51087 on 1 procs for 1000000 steps with 200 atoms

unfix           equil
# -----------------------------------------------------
# 6. 数据输出
# -----------------------------------------------------

# 写出最终体系数据文件
write_data      pdms_out.data
System init for write_data ...
