LAMMPS (29 Aug 2024 - Update 1)
package gpu 1
# LAMMPS输入文件示例：使用Martini 3粗粒化力场计算PDMS的均方回转半径
# -----------------------------------------------------
# 1. 初始化设置
# -----------------------------------------------------
units               real
dimension           3
boundary            p p p
atom_style          full

# 读取包含PDMS分子结构的data文件
read_data           PDMS_150_solvent.data
Reading data file ...
  orthogonal box = (-95 -95 -95) to (95 95 95)
  reading atoms ...
  62342 atoms
  scanning bonds ...
  scanning angles ...
  scanning dihedrals ...
  orthogonal box = (-95 -95 -95) to (95 95 95)
  reading bonds ...
  149 bonds
  reading angles ...
  148 angles
  reading dihedrals ...
  147 dihedrals
Finding 1-2 1-3 1-4 neighbors ...
     2 = max # of 1-2 neighbors
     2 = max # of 1-3 neighbors
     4 = max # of 1-4 neighbors
     6 = max # of special neighbors

# -----------------------------------------------------
# 2. 力场参数设置（Martini 3参数）
# -----------------------------------------------------
# 定义非键相互作用（示例：Lennard-Jones势，截断距离可参考Martini 3常用取值）
pair_style lj/cut/soft   2.0 0.5 12.0
pair_coeff          1 1 0.7337 5.1 0.8
pair_coeff          2 2 0.7337 5.1 0.8
pair_coeff          1 2 0.7337 5.1 0.8
pair_coeff          2 1 0.7337 5.1 0.8
pair_coeff          1 3 0.5762 4.65 0.8
pair_coeff          3 1 0.5762 4.65 0.8
pair_coeff          3 3 1.1071 4.7 0.8
# pair_style lj/gromacs   9.0 12.0
# pair_coeff          1 1 0.7337 5.1
# pair_coeff          2 2 0.7337 5.1
# pair_coeff          1 2 0.7337 5.1
# pair_coeff          2 1 0.7337 5.1
# pair_coeff          1 3 0.5762 4.65
# pair_coeff          3 1 0.5762 4.65
# pair_coeff          3 3 1.1071 4.7
# pair_style          harmonic/cut
# pair_coeff          * * 0.2 4.7
# 定义键、角、二面角势（示例参数，实际参数请参考相关文献）
bond_style          harmonic
bond_coeff          1 13.243 4.48
angle_style         harmonic
angle_coeff         1 5.48 86.0
dihedral_style      harmonic
dihedral_coeff      1 0.3346  1  1
# -----------------------------------------------------
# 3. 邻域列表设置
# -----------------------------------------------------
neigh_modify    one 1000
neighbor        1 bin
neigh_modify    delay 0 every 1 check yes

# -----------------------------------------------------
# 4. 能量最小化与预平衡
# -----------------------------------------------------
minimize        1.0e-4 1.0e-6 1000 10000

CITE-CITE-CITE-CITE-CITE-CITE-CITE-CITE-CITE-CITE-CITE-CITE-CITE

Your simulation uses code contributions which should be cited:

- GPU package (short-range, long-range and three-body potentials): doi:10.1016/j.cpc.2010.12.021, doi:10.1016/j.cpc.2011.10.012, doi:10.1016/j.cpc.2013.08.002, doi:10.1016/j.commatsci.2014.10.068, doi:10.1016/j.cpc.2016.10.020, doi:10.3233/APC200086

@Article{Brown11,
 author = {W. M. Brown and P. Wang and S. J. Plimpton and A. N. Tharrington},
 title = {Implementing Molecular Dynamics on Hybrid High Performance Computers---Short Range Forces},
 journal = {Comput.\ Phys.\ Commun.},
 year =    2011,
 volume =  182,
 pages =   {898--911},
 doi =     {10.1016/j.cpc.2010.12.021}
}

@Article{Brown12,
 author = {W. M. Brown and A. Kohlmeyer and S. J. Plimpton and A. N. Tharrington},
 title = {Implementing Molecular Dynamics on Hybrid High Performance Computers - Particle-Particle Particle-Mesh},
 journal = {Comput.\ Phys.\ Commun.},
 year =    2012,
 volume =  183,
 doi =     {10.1016/j.cpc.2011.10.012},
 pages =   {449--459}
}

@Article{Brown13,
 author = {W. M. Brown and Y. Masako},
 title = {Implementing Molecular Dynamics on Hybrid High Performance Computers---Three-Body Potentials},
 journal = {Comput.\ Phys.\ Commun.},
 year =    2013,
 volume =  184,
 pages =   {2785--2793},
 doi =     {10.1016/j.cpc.2013.08.002},
}

@Article{Trung15,
 author = {T. D. Nguyen and S. J. Plimpton},
 title = {Accelerating Dissipative Particle Dynamics Simulations for Soft Matter Systems},
 journal = {Comput.\ Mater.\ Sci.},
 year =    2015,
 doi =     {10.1016/j.commatsci.2014.10.068},
 volume =  100,
 pages =   {173--180}
}

@Article{Trung17,
 author = {T. D. Nguyen},
 title = {{GPU}-Accelerated {T}ersoff Potentials for Massively Parallel
    Molecular Dynamics Simulations},
 journal = {Comput.\ Phys.\ Commun.},
 year =    2017,
 doi =     {10.1016/j.cpc.2016.10.020},
 volume =  212,
 pages =   {113--122}
}

@inproceedings{Nikolskiy19,
 author = {V. Nikolskiy and V. Stegailov},
 title = {{GPU} Acceleration of Four-Site Water Models in {LAMMPS}},
 booktitle = {Proceedings of the International Conference on Parallel
    Computing (ParCo 2019), Prague, Czech Republic},
 doi =     {10.3233/APC200086},
 year =    2019
}

- Type Label Framework: https://doi.org/10.1021/acs.jpcb.3c08419

@Article{Gissinger24,
 author = {Jacob R. Gissinger, Ilia Nikiforov, Yaser Afshar, Brendon Waters, Moon-ki Choi, Daniel S. Karls, Alexander Stukowski, Wonpil Im, Hendrik Heinz, Axel Kohlmeyer, and Ellad B. Tadmor},
 title = {Type Label Framework for Bonded Force Fields in LAMMPS},
 journal = {J. Phys. Chem. B},
 year =    2024,
 volume =  128,
 number =  13,
 pages =   {3282–-3297}
}

CITE-CITE-CITE-CITE-CITE-CITE-CITE-CITE-CITE-CITE-CITE-CITE-CITE

Generated 1 of 3 mixed pair_coeff terms from geometric mixing rule
Step          Temp          E_pair         E_mol          TotEng         Press
0   0              38716042       470.41267      38716512       110697.89
Loop time of 0.654571 on 2 procs for 29 steps with 62342 atoms

Minimization stats:
  Stopping criterion = energy tolerance
  Energy initial, next-to-last, final =
  Force two-norm initial, final = 54245.094 12159.56
  Force max component initial, final = 11480.717 4048.7934
  Final line search alpha, max atom move = 2.2740447e-05 0.092071373
  Iterations, force evaluations = 29 29

fix             1 all npt temp 350.0 350.0 100.0 iso 1.0 1.0 1000
timestep        1
thermo_style    custom step temp press density vol
thermo          10000
run             50000
Generated 1 of 3 mixed pair_coeff terms from geometric mixing rule
Step          Temp          Press         Density         Volume
29   0              107440.98      1.0866795      6859000
Loop time of 739.952 on 2 procs for 50000 steps with 62342 atoms

unfix           1

# variable        lambda equal ramp(0.8,1.0)
# fix             2 all adapt 1 pair lj/cut/soft lambda * * v_lambda

# fix             3 all npt temp 300.0 300.0 100.0 iso 1.0 1.0 1000
# timestep        1
# thermo_style    custom step temp press density vol
# thermo          10000
# run             50000
# unfix           3

# -----------------------------------------------------
# 5. 计算均方回转半径
# -----------------------------------------------------
# 使用compute gyration命令计算整个体系的回转半径
fix             equil all nvt temp 350.0 350.0 100.0
variable        d_end equal "sqrt((x[1]-x[150])^2 + (y[1]-y[150])^2 + (z[1]-z[150])^2)"
compute         rg all gyration
fix             avg all ave/time 1000 800 1000000 c_rg v_d_end file avg.txt
# 输出热力学信息及回转半径数据，每隔1000步输出一次
thermo_style    custom step temp pe ke etotal c_rg v_d_end
thermo          10000
# 输出轨迹文件，便于后续可视化与分析
dump            traj all custom 1000 dump.pdms.lammpstrj id type x y z
# 运行模拟，记录回转半径数据（后续可统计分析均值与波动）
run             1000000
Generated 1 of 3 mixed pair_coeff terms from geometric mixing rule
Step          Temp          PotEng         KinEng         TotEng          c_rg         v_d_end
50029   397.82111      33288046       73925.777      33361972       154.07983      96.204504
Averages over the last 51 of 102 rows, steps 560000 to 1050029:
Temp PotEng KinEng TotEng c_rg v_d_end
357.356 1.34258e+07 66406.3 1.34922e+07 203.592 56.7001
Loop time of 16708.8 on 2 procs for 1000000 steps with 62342 atoms

unfix           equil
# -----------------------------------------------------
# 6. 数据输出
# -----------------------------------------------------

# # 写出最终体系数据文件
# write_data      pdms_out.data
